*Heading
** Job name: Job-1 Model name: Model-1
** Generated by: Abaqus/CAE 2025
*Preprint, echo=NO, model=NO, history=NO, contact=NO
**
** PARTS
**
*Part, name=ref_01
*Node
      1,         -55.,          19.,          85.
      2,         -55.,          19.,         115.
      3,         -55.,          18.,          45.
      4,         -55.,          18.,          75.
      5,         -55.,          17.,           5.
      6,         -55.,          17.,          35.
      7,         -55.,          16.,         -35.
      8,         -55.,          16.,          -5.
      9,         -55.,          15.,         -75.
     10,         -55.,          15.,         -45.
     11,         -55.,          14.,        -115.
     12,         -55.,          14.,         -85.
     13,         -15.,          13.,          85.
     14,         -15.,          13.,         115.
     15,         -15.,          12.,          45.
     16,         -15.,          12.,          75.
     17,         -15.,          11.,           5.
     18,         -15.,          11.,          35.
     19,         -15.,          10.,         -35.
     20,         -15.,          10.,          -5.
** ... 8984 like lines cut
*Element, type=C3D4
    1, 4834, 4835, 4836, 4837
    2, 4834, 4838, 4839, 4840
    3, 4834, 4841, 4839, 4838
    4, 4842, 4843, 4844, 4845
    5, 4842, 4845, 4846, 4847
    6, 4848, 4845, 4849, 4842
    7, 4850, 4848, 4845, 4849
    8, 4842, 4849, 4848, 4851
    9, 4842, 4846, 4845, 4849
   10, 4852, 4853, 4854, 4855
   11, 4855, 4856, 4857, 4858
   12, 4855, 4852, 4859, 4860
   13, 4855, 4852, 4853, 4861
   14, 4855, 4856, 4862, 4861
   15, 4863, 3324, 4864, 4865
   16, 4863, 3327, 4866, 4867
   17, 4868, 4864, 4869, 4870
   18, 4864, 4869, 4870, 4863
   19, 4867, 4870, 4869, 4863
   20, 4871, 4872, 4873, 4874
** ... 39874 like lines cut
*Nset, nset=Set-1, generate
    1,  9004,     1
*Elset, elset=Set-1, generate
     1,  39894,      1
*Elset, elset=_Surf-1_S3, internal
    42,    61,   105,   157,   226,   281,   283,   330,   431,   454,   520,   527,   529,   576,   593,   607
   626,   652,   675,   676,   686,   709,   713,   745,   801,   918,   922,   928,   929,   936,  1002,  1011
  1012,  1026,  1028,  1029,  1045,  1146,  1159,  1185,  1200,  1204,  1215,  1220,  1249,  1338,  1346,  1430
  1449,  1456,  1468,  1578,  1601,  1629,  1700,  1701,  1707,  1708,  1743,  1788,  1790,  1831,  1867,  1926
  1933,  1938,  1975,  2083,  2139,  2172,  2204,  2310,  2313,  2344,  2449,  2524,  2606,  2742,  2753,  2776
  2857,  2942,  2955,  2969,  2983,  3001,  3027,  3054,  3167,  3180,  3189,  3254,  3325,  3366,  3405,  3505
  3538,  3572,  3578,  3579,  3580,  3586,  3594,  3601,  3609,  3623,  3673,  3709,  3801,  3866,  3893,  3917
  3967,  3987,  4024,  4090,  4112,  4121,  4153,  4191,  4204,  4235,  4236,  4249,  4251,  4267,  4294,  4372
  4388,  4541,  4559,  4560,  4644,  4649,  4662,  4669,  4689,  4705,  4728,  4732,  4782,  4798,  4808,  4826
  4837,  4942,  4948,  5022,  5024,  5062,  5063,  5069,  5086,  5104,  5136,  5151,  5267,  5284,  5333,  5337
  5343,  5395,  5401,  5416,  5422,  5430,  5431,  5434,  5437,  5459,  5465,  5509,  5516,  5546,  5547,  5637
  5668,  5700,  5711,  5772,  5788,  5789,  5816,  5840,  5850,  5862,  5866,  5870,  5902,  5918,  5919,  5935
  5936,  5949,  5966,  5990,  6003,  6089,  6091,  6100,  6200,  6285,  6368,  6376,  6379,  6425,  6430,  6436
  6444,  6446,  6454,  6456,  6457,  6461,  6469,  6474,  6475,  6481,  6483,  6514,  6517,  6524,  6528,  6534
  6545,  6546,  6561,  6567,  6577,  6580,  6600,  6602,  6606,  6627,  6628,  6629,  6632,  6639,  6643,  6647
  6650,  6667,  6668,  6669,  6671,  6672,  6674,  6676,  6678,  6687,  6701,  6705,  6708,  6709,  6713,  6715
  6720,  6724,  6728,  6742,  6743,  6749,  6750,  6752,  6767,  6768,  6774,  6778,  6779,  6783,  6787,  6801
  6808,  6820,  6821,  6830,  6833,  6834,  6836,  6839,  6849,  6850,  6854,  6864,  6870,  6871,  6874,  6876
  6888,  6892,  6894,  6900,  6901,  6903,  6905,  6914,  6919,  6921,  6925,  6933,  6941,  6946,  6948,  6953
  6954,  6961,  6962,  6967,  6977,  6983,  6986,  6991,  6995,  7004,  7007,  7015,  7025,  7028,  7029,  7034
** ... 490 like lines cut
*Elset, elset=_Surf-1_S4, internal
   136,   240,   271,   336,   513,   536,   747,  1230,  1445,  1481,  1834,  1870,  2038,  2133,  2290,  2392
  2832,  3214,  3601,  3666,  3669,  3918,  4093,  4254,  4494,  4561,  4860,  6004,  6472,  6554,  6589,  6655
  6668,  6670,  6698,  6752,  6760,  6787,  6857,  6996,  7057,  7082,  7180,  7199,  7208,  7243,  7322,  7337
  7352,  7360,  7367,  7393,  7469,  7483,  7540,  7567,  7568,  7574,  7598,  7655,  7723,  7733,  7798,  7859
  7914,  7936,  8092,  8125,  8201,  8472,  8547,  8568,  8634,  8703,  8764,  8778,  8916,  8948,  9062,  9280
  9558,  9637,  9762,  9831,  9842,  9871,  9899,  9901,  9908,  9914,  9918,  9957, 10018, 10044, 10091, 10095
 10107, 10415, 10582, 10640, 10686, 10762, 10982, 11092, 11136, 11155, 11220, 11410, 11940, 12058, 12298, 12342
 12360, 12444, 12604, 12717, 12771, 12954, 13078, 13142, 13156, 13165, 13193, 13338, 13393, 13397, 13441, 13651
 13660, 13666, 13669, 13686, 13739, 13747, 13798, 13892, 13928, 13934, 13935, 13942, 13966, 13982, 13987, 14024
 14028, 14058, 14081, 14084, 14109, 14208, 14220, 14221, 14222, 14229, 14252, 14253, 14254, 14264, 14290, 14301
 14307, 14309, 14313, 14349, 14398, 14467, 14486, 14585, 14617, 14798, 15265, 15389, 15476, 15607, 15702, 15721
 15770, 16052, 16089, 16332, 16422, 16712, 16826, 16858, 16869, 17220, 17539, 17658, 17666, 17669, 17741, 17772
 17781, 17790, 17950, 17974, 17977, 17986, 18002, 18006, 18012, 18021, 18026, 18027, 18037, 18059, 18084, 18137
 18147, 18156, 18181, 18204, 18278, 18317, 18348, 18357, 18565, 18579, 18599, 18608, 18634, 18640, 18662, 18665
 18671, 18677, 18684, 18691, 18866, 18871, 18873, 18881, 18891, 18897, 18898, 18903, 18924, 18925, 18932, 18993
 19013, 19149, 19175, 19206, 19228, 19232, 19261, 19263, 19466, 19479, 19555, 19583, 19636, 19760, 19777, 19788
 19808, 19817, 19823, 19825, 19859, 20130, 20147, 20217, 20279, 20621, 20681, 20686, 20701, 20726, 20764, 20950
 20987, 21094, 21126, 21284, 21379, 21415, 21431, 21443, 21469, 21570, 21707, 21805, 21858, 21876, 21878, 22313
 22320, 22325, 22356, 22472, 22626, 22687, 22690, 22719, 22734, 22783, 22821, 22942, 22972, 23033, 23065, 23113
 23133, 23147, 23151, 23162, 23171, 23198, 23199, 23243, 23294, 23304, 23568, 23643, 23665, 23731, 23737, 23817
** ... 15 like lines cut
*Elset, elset=_Surf-1_S1, internal
   712,   747,   900,  1147,  2137,  2442,  3600,  3866,  4299,  4581,  4703,  5090,  5162,  5684,  5977,  6708
  6710,  6875,  7021,  7090,  7098,  7243,  7352,  7445,  7488,  7513,  7517,  7553,  7556,  7557,  7641,  7727
  7942,  8154,  8235,  8315,  8358,  8542,  8549,  8600,  8781,  8800,  8848,  8913,  8974,  9026,  9129,  9375
  9530,  9671,  9706,  9790,  9816,  9896,  9967, 10004, 10006, 10535, 10630, 11059, 11121, 11601, 12042, 12460
 12553, 12717, 13054, 13073, 13140, 13203, 13338, 13412, 13626, 13667, 13676, 13678, 13702, 13706, 13707, 13708
 13718, 13732, 13738, 13795, 13930, 13931, 13944, 13983, 13986, 13991, 14002, 14023, 14026, 14027, 14032, 14066
 14071, 14197, 14200, 14214, 14228, 14239, 14246, 14263, 14281, 14284, 14302, 14305, 14310, 14367, 14479, 14487
 14488, 14490, 14524, 14526, 14549, 14559, 14565, 14573, 14574, 14609, 14671, 14737, 14762, 14773, 14801, 14815
 14821, 14860, 15029, 15051, 15465, 15855, 16290, 16357, 16819, 17132, 17174, 17686, 17720, 17734, 17771, 17834
 17982, 17985, 17996, 18003, 18011, 18025, 18060, 18062, 18073, 18126, 18144, 18261, 18267, 18282, 18296, 18313
 18318, 18331, 18356, 18363, 18383, 18422, 18577, 18580, 18637, 18641, 18655, 18659, 18672, 18679, 18688, 18849
 18861, 18887, 18889, 18907, 18918, 18921, 18927, 18928, 18957, 19039, 19161, 19172, 19180, 19202, 19212, 19225
 19230, 19238, 19243, 19297, 19303, 19306, 19326, 19365, 19465, 19467, 19518, 19529, 19545, 19563, 19568, 19620
 19746, 19770, 19778, 19784, 19810, 19828, 19830, 19854, 19856, 19858, 20053, 20490, 20706, 20726, 20833, 20905
 21094, 21174, 21321, 21389, 21426, 21464, 21469, 21488, 21497, 21568, 21661, 21694, 21728, 21746, 21754, 21878
 21896, 21906, 21913, 22125, 22140, 22237, 22364, 22522, 22562, 22626, 22725, 22730, 22745, 22806, 22868, 22883
 23149, 23197, 23262, 23440, 23512, 23637, 23673, 23760, 23778, 23859, 23872, 23897, 23938, 24030, 24122, 24140
 24150, 24261, 24273, 24280, 24381, 24426, 24465, 24469, 24507, 24542, 24550, 24563, 24602, 24630, 24689, 24786
 24788, 24844, 24867, 24906, 24990, 25000, 25102, 25129, 25144, 25176, 25200, 25205, 25233, 25305, 25355, 25534
 25601, 25657, 25732, 25872, 25912, 25920, 25993, 26034, 26051, 26126, 26158, 26238, 26456, 26478, 26494, 26512
** ... 10 like lines cut
*Elset, elset=_Surf-1_S2, internal
   414,  1014,  1225,  1226,  1311,  1834,  1867,  2420,  3137,  3573,  3613,  3967,  5619,  6451,  6452,  6585
  6588,  6598,  6694,  6718,  6751,  6762,  6860,  6888,  7033,  7103,  7133,  7413,  7417,  7509,  7519,  7541
  7557,  7582,  7583,  7595,  7613,  7635,  7712,  7744,  7748,  7773,  7777,  7779,  7791,  7822,  7835,  7838
  7848,  7900,  7929,  7953,  7977,  8013,  8051,  8249,  8362,  8716,  8925,  8939,  8963,  8992,  9016,  9026
  9062,  9329,  9330,  9337,  9344,  9373,  9425,  9493,  9518,  9593,  9665,  9689,  9779,  9794,  9869,  9875
  9880,  9896,  9900,  9909,  9959,  9979,  9981, 10008, 10093, 10395, 10435, 10579, 10629, 10691, 10796, 11014
 11153, 11518, 11559, 11929, 12281, 12456, 12779, 12795, 12935, 13081, 13191, 13265, 13333, 13371, 13394, 13411
 13445, 13479, 13522, 13662, 13670, 13791, 13932, 13955, 13973, 13976, 13987, 14029, 14039, 14203, 14243, 14259
 14300, 14311, 14346, 14401, 14494, 14496, 14504, 14804, 14863, 14975, 15647, 15680, 15706, 15745, 15780, 15975
 16196, 16265, 16398, 16608, 16710, 16889, 16900, 16917, 16930, 16955, 17160, 17218, 17331, 17432, 17511, 17717
 17721, 17769, 17789, 17791, 17846, 17910, 18001, 18022, 18024, 18028, 18055, 18065, 18137, 18259, 18295, 18337
 18340, 18355, 18366, 18553, 18556, 18567, 18573, 18590, 18592, 18593, 18603, 18615, 18617, 18626, 18629, 18630
 18631, 18651, 18676, 18683, 18702, 18856, 18860, 18868, 18875, 18902, 18905, 18917, 18931, 18939, 18950, 18953
 18954, 18959, 19137, 19162, 19168, 19176, 19187, 19192, 19200, 19215, 19224, 19246, 19247, 19249, 19271, 19318
 19470, 19472, 19477, 19496, 19514, 19526, 19535, 19561, 19564, 19572, 19582, 19603, 19646, 19766, 19768, 19775
 19814, 19834, 19837, 19860, 19871, 19882, 19965, 20135, 20142, 20150, 20473, 20534, 20634, 20640, 20710, 20764
 20785, 20799, 20806, 20830, 20975, 21046, 21082, 21174, 21321, 21340, 21396, 21455, 21488, 21617, 21754, 21912
 21946, 22013, 22037, 22070, 22223, 22350, 22390, 22487, 22562, 22566, 22592, 22647, 22670, 22774, 22972, 22977
 23015, 23070, 23223, 23343, 23378, 23394, 23525, 23637, 23662, 23700, 23731, 23787, 23793, 23817, 23820, 23915
 23921, 23937, 23971, 24035, 24050, 24098, 24189, 24216, 24232, 24277, 24309, 24331, 24380, 24390, 24426, 24467
** ... 11 like lines cut
*Surface, type=ELEMENT, name=Surf-1
_Surf-1_S3, S3
_Surf-1_S4, S4
_Surf-1_S2, S2
_Surf-1_S1, S1
*Orientation, name=Ori-1
1., 0., 0., 0., 1., 0.
1, 90.
** Section: Section-1
*Solid Section, elset=Set-1, orientation=Ori-1, material=Material-1
,
*End Part
**  
**
** ASSEMBLY
**
*Assembly, name=Assembly
**  
*Instance, name=ref_01-1, part=ref_01
*End Instance
**  
*Elset, elset=_Surf-1_S3, internal, instance=ref_01-1
   520,   576,  3601,  4388,  6457,  6701,  6778,  7479,  7546,  8719, 10083, 10325, 10404, 10829, 10833, 10846
 11009, 11179, 11708, 11957, 12220, 12232, 12246, 12499, 13052, 15895, 16237, 16487, 17153, 18538, 20778, 20855
 20856, 20930, 21010, 21059, 21070, 21071, 23125, 23382, 23527, 23546, 23556, 23568, 23574, 24389, 24394, 24681
 24686, 25057, 25126, 25134, 25231, 25238, 25244, 25260, 25685, 26107, 26208, 26209, 26768, 26771, 26811, 26844
 26863, 28066, 28159, 28669, 28671, 28974, 28982, 28989, 29004, 29221, 29472, 29480, 29485, 29497, 29504, 29505
 29509, 29510, 29514, 29540, 29545, 29553, 29558, 29566, 29579, 29591, 29592, 29598, 29619, 29620, 29625, 29626
 29627, 29635, 29644, 29648, 29652, 29655, 29670, 29682, 29683, 29692, 29703, 29715, 29752, 29767, 29786, 29789
 29790, 29791, 29821, 29835, 29846, 29856, 29864, 29877, 29886, 29890, 29900, 29911, 29912, 29922, 29923, 29936
 29944, 29950, 29962, 29965, 29974, 30002, 30005, 30006, 30010, 30012, 30015, 30018, 30020, 30026, 30034, 30035
 30039, 30045, 30047, 30049, 30051, 30052, 30056, 30062, 30065, 30066, 30070, 30072, 30073, 30080, 30082, 30085
 30087, 30089, 30091, 30098, 30100, 30105, 30110, 30112, 30124, 30131, 30133, 30138, 30142, 30144, 30150, 30151
 30155, 30840, 31777, 31780, 32467, 32540, 33001, 33021, 33027, 33044, 33065, 33148, 33167, 33193, 33195, 33259
 33262, 33264, 34420, 35047, 35067, 35160, 35162, 35164, 35204, 35306, 35312, 35357, 35359, 35509, 35513, 35592
 35813, 35952, 36662, 36663, 36877, 36879, 36885, 37054, 37057, 37133, 37136, 37307, 38576, 38874, 38877, 38918
 39165, 39169, 39171, 39433, 39434, 39750, 39752
*Elset, elset=_Surf-1_S4, internal, instance=ref_01-1
  2832,  4093,  4494, 29798, 35817
*Elset, elset=_Surf-1_S1, internal, instance=ref_01-1
  3600, 13338, 24689, 25144, 26858, 29527, 29664, 29686, 29784, 32551
*Elset, elset=_Surf-1_S2, internal, instance=ref_01-1
  3613,  6452, 13932, 13987, 29654, 29725, 29787, 31412, 32903, 33040
*Surface, type=ELEMENT, name=Surf-1
_Surf-1_S3, S3
_Surf-1_S4, S4
_Surf-1_S2, S2
_Surf-1_S1, S1
*End Assembly
** 
** MATERIALS
** 
*Material, name=Material-1
*Conductivity, type=ORTHO
1.,1.,1.
*Density
1.,
*Specific Heat
1.,
** 
** PREDEFINED FIELDS
** 
** Name: Predefined Field-1   Type: Temperature
*Initial Conditions, type=TEMPERATURE
ref_01-1.Set-1, 50.
** ----------------------------------------------------------------
** 
** STEP: Step-1
** 
*Step, name=Step-1, nlgeom=NO, inc=1000
*Heat Transfer, end=PERIOD, deltmx=10.
0.001, 1., 1e-05, 0.01, 
** 
** INTERACTIONS
** 
** Interaction: Int-1
*Sfilm
ref_01-1.Surf-1, F, 20., 0.1
** 
** OUTPUT REQUESTS
** 
*Restart, write, frequency=0
** 
** FIELD OUTPUT: F-Output-1
** 
*Output, field, variable=PRESELECT
** 
** HISTORY OUTPUT: H-Output-1
** 
*Output, history
*Radiation Output, variable=ALL
*Contact Output
HFLA, HTL, HTLA, SJD, SJDA, SJDE, SJDEA, SJDET, SJDETA, SJDR, SJDRA, SJDRT, SJDRTA, SJDT, SJDTA, WEIGHT
*End Step
